!----------------------------------------------------------------------------------
! Users should add all user specific namelist changes below in the form of 
!   namelist_var = new_namelist_value 
! Note - that it does not matter what namelist group the namelist_var belongs to
!----------------------------------------------------------------------------------

r_snw = 1.6
dt_mlt = 0.5
rsnw_mlt = 1000.
